test/resources/V1_0/noExtension.xml
<?xml version="1.0" encoding="UTF-8"?>
<iidm:network xmlns:iidm="http://www.itesla_project.eu/schema/iidm/1_0" id="test" caseDate="2017-11-17T12:00:00+01:00" forecastDistance="0" sourceFormat="test">
    <iidm:substation id="S" country="FR">
        <iidm:voltageLevel id="VL" nominalV="20" lowVoltageLimit="15" highVoltageLimit="25" topologyKind="BUS_BREAKER">
            <iidm:busBreakerTopology>
                <iidm:bus id="BUS"/>
            </iidm:busBreakerTopology>
            <iidm:load id="LOAD" loadType="UNDEFINED" p0="0" q0="0" bus="BUS" connectableBus="BUS"/>
            <iidm:load id="LOAD2" loadType="UNDEFINED" p0="0" q0="0" bus="BUS" connectableBus="BUS"/>
        </iidm:voltageLevel>
    </iidm:substation>
</iidm:network>
